%oldchk=is_6-31gd.chk
%chk=is_6-31gd_nlmo.chk
%mem=16GB
%nprocshared=8
#p RHF/6-31g(d) nosymm int=nobasistransform guess(read,only) geom=allcheck pop=SaveNLMOs

title

0 1
C -3.67329600 -1.52057000 -1.29847400
C -2.30906300 -1.56401800 -1.52144600
C -1.44212300 -0.61421400 -0.93024400
C -1.98985700 0.37196300 -0.05836900
C -3.38505500 0.38108200 0.16720100
C -4.21539800 -0.53731800 -0.45196300
C -0.01287700 -0.61140400 -1.15085100
C -1.05910400 1.25904700 0.62021100
C 0.11805100 1.62757600 -0.15184100
C 0.64828100 0.66911600 -1.06081400
C 1.81850900 0.98508200 -1.79061200
H 2.22667700 0.26236700 -2.48954000
C 2.42776300 2.21814800 -1.65562700
C 1.90638100 3.16425600 -0.75633600
C 0.78245600 2.86569200 -0.00697400
H -4.32573800 -2.24090000 -1.78452000
H -1.90476200 -2.31848500 -2.18789800
H -3.81994900 1.13520900 0.81454100
H -5.28850200 -0.49480500 -0.28535800
H 3.30976300 2.45517200 -2.24446000
H 2.38582200 4.13356200 -0.64907600
H 0.39353800 3.60994400 0.67941500
C -0.19407000 -0.24757500 1.89547200
C 0.48658000 -1.18439800 1.08716900
C 1.94978000 -1.10182900 1.00808500
O 2.63097100 -0.13649700 1.30658700
C 0.60290800 -1.71609700 -1.97770400
H 0.19251000 -2.69166300 -1.70513800
H 0.41176600 -1.56107400 -3.04908200
H 1.68223200 -1.77242100 -1.83152600
C -1.60319300 2.29045400 1.59030400
H -0.81873600 2.65514500 2.25989400
H -2.01251000 3.15845900 1.05635900
H -2.40207200 1.88655400 2.21449700
O 2.49623800 -2.26969300 0.55416100
C 3.92845400 -2.28233400 0.50034900
H 4.19994900 -3.26892100 0.12129900
H 4.30165200 -1.49872100 -0.16487600
H 4.35467600 -2.12600700 1.49569400
H 0.05561400 -2.16827900 0.93343900
H 0.44962000 0.48563400 2.37555300
C -1.35973200 -0.74255700 2.72500100
H -1.95486500 0.07031100 3.14988200
H -2.02609400 -1.38580600 2.14175400
H -0.98062800 -1.33638100 3.56794200

