%chk=01fs.chk
#opt b3lyp/6-31+g(d)

01fs

0 1
 C    0.142000   -1.012000    0.873000
 C    0.220000    0.359000    1.084000
 C   -1.024000    1.278000    0.712000
 C   -1.931000    0.802000   -0.216000
 C   -2.037000   -0.588000   -0.488000
 C   -1.236000   -1.505000    0.169000
 C    1.531000   -1.533000    0.803000
 C    1.660000    0.719000    1.149000
 H   -1.593000    1.507000    1.674000
 O    2.191000    1.791000    1.227000
 O    1.938000   -2.631000    0.546000
Cl   -3.370000   -1.197000   -1.440000
Cl   -3.133000    1.909000   -0.832000
 O    2.391000   -0.471000    1.099000
 H   -0.098000   -1.329000    1.941000
 H    0.037000    0.332000    2.209000
 H   -0.569000    2.252000    0.334000
 H   -0.970000   -2.327000   -0.575000
 H   -1.826000   -1.986000    1.018000

