%chk=is_cc-pvdz.chk
%mem=8GB
%nprocshared=8
#p RHF/cc-pvdz nosymm int=nobasistransform

title

0 1
C -1.73789200 -0.69506200 0.98239100
C -1.73813900 0.69449000 0.98242900
C 0.35662000 1.42222000 1.53002800
C 1.18009100 0.71065700 0.67660200
C 1.18033800 -0.71033100 0.67660000
C 0.35706400 -1.42217800 1.52998300
C -1.71918900 -1.14110800 -0.43489200
C -1.71963200 1.14063100 -0.43483100
H 0.28618300 2.49933700 1.42665300
H 0.28693600 -2.49930900 1.42654800
O -1.80404700 2.24075300 -0.90468200
O -1.80311700 -2.24124200 -0.90480800
H 0.11851300 -1.02187100 2.50695900
H 0.11822200 1.02180100 2.50699700
H -2.14434600 -1.34080600 1.74962200
H -2.14478600 1.34005800 1.74970700
Cl 2.00171700 -1.58673100 -0.59103300
Cl 2.00110600 1.58733400 -0.59107300
O -1.58337100 -0.00018500 -1.23057900                                                                                                                
 
